<?xml version="1.0" encoding="UTF-8"?>

<!-- generated on 01/21/20 23:09:31 by Eclipse SUMO netedit Version 1.3.1
<configuration xmlns:xsi="http://www.w3.org/2001/XMLSchema-instance" xsi:noNamespaceSchemaLocation="http://sumo.dlr.de/xsd/netconvertConfiguration.xsd">

    <input>
        <sumo-net-file value="C:\Users\Max%20Brenner\PycharmProjects\MyTraci\data\3_3_intersections.net.xml"/>
    </input>

    <output>
        <output-file value="C:\Users\Max%20Brenner\PycharmProjects\MyTraci\data\3_3_intersections.net.xml"/>
    </output>

    <processing>
        <geometry.max-grade.fix value="false"/>
        <offset.disable-normalization value="true"/>
        <opposites.guess.fix-lengths value="true"/>
        <lefthand value="false"/>
    </processing>

    <junctions>
        <no-turnarounds value="true"/>
        <junctions.corner-detail value="0"/>
        <junctions.limit-turn-speed value="-1"/>
        <rectangular-lane-cut value="false"/>
    </junctions>

    <pedestrian>
        <walkingareas value="false"/>
    </pedestrian>

</configuration>
-->

<net version="1.3" xmlns:xsi="http://www.w3.org/2001/XMLSchema-instance" xsi:noNamespaceSchemaLocation="http://sumo.dlr.de/xsd/net_file.xsd">

    <location netOffset="510.00,510.00" convBoundary="-300.00,-900.00,900.00,300.00" origBoundary="-510.00,-510.00,510.00,510.00" projParameter="!"/>

    <edge id=":intersectionCenter_0" function="internal">
        <lane id=":intersectionCenter_0_0" index="0" speed="13.89" length="9.03" shape="298.40,-292.80 298.05,-295.25 297.00,-297.00 295.25,-298.05 292.80,-298.40"/>
    </edge>
    <edge id=":intersectionCenter_1" function="internal">
        <lane id=":intersectionCenter_1_0" index="0" speed="13.89" length="14.40" shape="298.40,-292.80 298.40,-307.20"/>
    </edge>
    <edge id=":intersectionCenter_2" function="internal">
        <lane id=":intersectionCenter_2_0" index="0" speed="13.89" length="5.93" shape="298.40,-292.80 298.95,-296.65 300.00,-298.40"/>
    </edge>
    <edge id=":intersectionCenter_12" function="internal">
        <lane id=":intersectionCenter_12_0" index="0" speed="13.89" length="8.26" shape="300.00,-298.40 300.60,-299.40 303.35,-301.05 307.20,-301.60"/>
    </edge>
    <edge id=":intersectionCenter_3" function="internal">
        <lane id=":intersectionCenter_3_0" index="0" speed="13.89" length="9.03" shape="307.20,-298.40 304.75,-298.05 303.00,-297.00 301.95,-295.25 301.60,-292.80"/>
    </edge>
    <edge id=":intersectionCenter_4" function="internal">
        <lane id=":intersectionCenter_4_0" index="0" speed="13.89" length="14.40" shape="307.20,-298.40 292.80,-298.40"/>
    </edge>
    <edge id=":intersectionCenter_5" function="internal">
        <lane id=":intersectionCenter_5_0" index="0" speed="13.89" length="5.93" shape="307.20,-298.40 303.35,-298.95 301.60,-300.00"/>
    </edge>
    <edge id=":intersectionCenter_13" function="internal">
        <lane id=":intersectionCenter_13_0" index="0" speed="13.89" length="8.26" shape="301.60,-300.00 300.60,-300.60 298.95,-303.35 298.40,-307.20"/>
    </edge>
    <edge id=":intersectionCenter_6" function="internal">
        <lane id=":intersectionCenter_6_0" index="0" speed="13.89" length="9.03" shape="301.60,-307.20 301.95,-304.75 303.00,-303.00 304.75,-301.95 307.20,-301.60"/>
    </edge>
    <edge id=":intersectionCenter_7" function="internal">
        <lane id=":intersectionCenter_7_0" index="0" speed="13.89" length="14.40" shape="301.60,-307.20 301.60,-292.80"/>
    </edge>
    <edge id=":intersectionCenter_8" function="internal">
        <lane id=":intersectionCenter_8_0" index="0" speed="13.89" length="5.93" shape="301.60,-307.20 301.05,-303.35 300.00,-301.60"/>
    </edge>
    <edge id=":intersectionCenter_14" function="internal">
        <lane id=":intersectionCenter_14_0" index="0" speed="13.89" length="8.26" shape="300.00,-301.60 299.40,-300.60 296.65,-298.95 292.80,-298.40"/>
    </edge>
    <edge id=":intersectionCenter_9" function="internal">
        <lane id=":intersectionCenter_9_0" index="0" speed="13.89" length="9.03" shape="292.80,-301.60 295.25,-301.95 297.00,-303.00 298.05,-304.75 298.40,-307.20"/>
    </edge>
    <edge id=":intersectionCenter_10" function="internal">
        <lane id=":intersectionCenter_10_0" index="0" speed="13.89" length="14.40" shape="292.80,-301.60 307.20,-301.60"/>
    </edge>
    <edge id=":intersectionCenter_11" function="internal">
        <lane id=":intersectionCenter_11_0" index="0" speed="13.89" length="5.93" shape="292.80,-301.60 296.65,-301.05 298.40,-300.00"/>
    </edge>
    <edge id=":intersectionCenter_15" function="internal">
        <lane id=":intersectionCenter_15_0" index="0" speed="13.89" length="8.26" shape="298.40,-300.00 299.40,-299.40 301.05,-296.65 301.60,-292.80"/>
    </edge>
    <edge id=":intersectionE_0" function="internal">
        <lane id=":intersectionE_0_0" index="0" speed="13.89" length="9.03" shape="598.40,-292.80 598.05,-295.25 597.00,-297.00 595.25,-298.05 592.80,-298.40"/>
    </edge>
    <edge id=":intersectionE_1" function="internal">
        <lane id=":intersectionE_1_0" index="0" speed="13.89" length="14.40" shape="598.40,-292.80 598.40,-307.20"/>
    </edge>
    <edge id=":intersectionE_2" function="internal">
        <lane id=":intersectionE_2_0" index="0" speed="13.89" length="5.93" shape="598.40,-292.80 598.95,-296.65 600.00,-298.40"/>
    </edge>
    <edge id=":intersectionE_12" function="internal">
        <lane id=":intersectionE_12_0" index="0" speed="13.89" length="8.26" shape="600.00,-298.40 600.60,-299.40 603.35,-301.05 607.20,-301.60"/>
    </edge>
    <edge id=":intersectionE_3" function="internal">
        <lane id=":intersectionE_3_0" index="0" speed="13.89" length="9.03" shape="607.20,-298.40 604.75,-298.05 603.00,-297.00 601.95,-295.25 601.60,-292.80"/>
    </edge>
    <edge id=":intersectionE_4" function="internal">
        <lane id=":intersectionE_4_0" index="0" speed="13.89" length="14.40" shape="607.20,-298.40 592.80,-298.40"/>
    </edge>
    <edge id=":intersectionE_5" function="internal">
        <lane id=":intersectionE_5_0" index="0" speed="13.89" length="5.93" shape="607.20,-298.40 603.35,-298.95 601.60,-300.00"/>
    </edge>
    <edge id=":intersectionE_13" function="internal">
        <lane id=":intersectionE_13_0" index="0" speed="13.89" length="8.26" shape="601.60,-300.00 600.60,-300.60 598.95,-303.35 598.40,-307.20"/>
    </edge>
    <edge id=":intersectionE_6" function="internal">
        <lane id=":intersectionE_6_0" index="0" speed="13.89" length="9.03" shape="601.60,-307.20 601.95,-304.75 603.00,-303.00 604.75,-301.95 607.20,-301.60"/>
    </edge>
    <edge id=":intersectionE_7" function="internal">
        <lane id=":intersectionE_7_0" index="0" speed="13.89" length="14.40" shape="601.60,-307.20 601.60,-292.80"/>
    </edge>
    <edge id=":intersectionE_8" function="internal">
        <lane id=":intersectionE_8_0" index="0" speed="13.89" length="5.93" shape="601.60,-307.20 601.05,-303.35 600.00,-301.60"/>
    </edge>
    <edge id=":intersectionE_14" function="internal">
        <lane id=":intersectionE_14_0" index="0" speed="13.89" length="8.26" shape="600.00,-301.60 599.40,-300.60 596.65,-298.95 592.80,-298.40"/>
    </edge>
    <edge id=":intersectionE_9" function="internal">
        <lane id=":intersectionE_9_0" index="0" speed="13.89" length="9.03" shape="592.80,-301.60 595.25,-301.95 597.00,-303.00 598.05,-304.75 598.40,-307.20"/>
    </edge>
    <edge id=":intersectionE_10" function="internal">
        <lane id=":intersectionE_10_0" index="0" speed="13.89" length="14.40" shape="592.80,-301.60 607.20,-301.60"/>
    </edge>
    <edge id=":intersectionE_11" function="internal">
        <lane id=":intersectionE_11_0" index="0" speed="13.89" length="5.93" shape="592.80,-301.60 596.65,-301.05 598.40,-300.00"/>
    </edge>
    <edge id=":intersectionE_15" function="internal">
        <lane id=":intersectionE_15_0" index="0" speed="13.89" length="8.26" shape="598.40,-300.00 599.40,-299.40 601.05,-296.65 601.60,-292.80"/>
    </edge>
    <edge id=":intersectionN_0" function="internal">
        <lane id=":intersectionN_0_0" index="0" speed="13.89" length="9.03" shape="298.40,7.20 298.05,4.75 297.00,3.00 295.25,1.95 292.80,1.60"/>
    </edge>
    <edge id=":intersectionN_1" function="internal">
        <lane id=":intersectionN_1_0" index="0" speed="13.89" length="14.40" shape="298.40,7.20 298.40,-7.20"/>
    </edge>
    <edge id=":intersectionN_2" function="internal">
        <lane id=":intersectionN_2_0" index="0" speed="13.89" length="5.93" shape="298.40,7.20 298.95,3.35 300.00,1.60"/>
    </edge>
    <edge id=":intersectionN_12" function="internal">
        <lane id=":intersectionN_12_0" index="0" speed="13.89" length="8.26" shape="300.00,1.60 300.60,0.60 303.35,-1.05 307.20,-1.60"/>
    </edge>
    <edge id=":intersectionN_3" function="internal">
        <lane id=":intersectionN_3_0" index="0" speed="13.89" length="9.03" shape="307.20,1.60 304.75,1.95 303.00,3.00 301.95,4.75 301.60,7.20"/>
    </edge>
    <edge id=":intersectionN_4" function="internal">
        <lane id=":intersectionN_4_0" index="0" speed="13.89" length="14.40" shape="307.20,1.60 292.80,1.60"/>
    </edge>
    <edge id=":intersectionN_5" function="internal">
        <lane id=":intersectionN_5_0" index="0" speed="13.89" length="5.93" shape="307.20,1.60 303.35,1.05 301.60,0.00"/>
    </edge>
    <edge id=":intersectionN_13" function="internal">
        <lane id=":intersectionN_13_0" index="0" speed="13.89" length="8.26" shape="301.60,0.00 300.60,-0.60 298.95,-3.35 298.40,-7.20"/>
    </edge>
    <edge id=":intersectionN_6" function="internal">
        <lane id=":intersectionN_6_0" index="0" speed="13.89" length="9.03" shape="301.60,-7.20 301.95,-4.75 303.00,-3.00 304.75,-1.95 307.20,-1.60"/>
    </edge>
    <edge id=":intersectionN_7" function="internal">
        <lane id=":intersectionN_7_0" index="0" speed="13.89" length="14.40" shape="301.60,-7.20 301.60,7.20"/>
    </edge>
    <edge id=":intersectionN_8" function="internal">
        <lane id=":intersectionN_8_0" index="0" speed="13.89" length="5.93" shape="301.60,-7.20 301.05,-3.35 300.00,-1.60"/>
    </edge>
    <edge id=":intersectionN_14" function="internal">
        <lane id=":intersectionN_14_0" index="0" speed="13.89" length="8.26" shape="300.00,-1.60 299.40,-0.60 296.65,1.05 292.80,1.60"/>
    </edge>
    <edge id=":intersectionN_9" function="internal">
        <lane id=":intersectionN_9_0" index="0" speed="13.89" length="9.03" shape="292.80,-1.60 295.25,-1.95 297.00,-3.00 298.05,-4.75 298.40,-7.20"/>
    </edge>
    <edge id=":intersectionN_10" function="internal">
        <lane id=":intersectionN_10_0" index="0" speed="13.89" length="14.40" shape="292.80,-1.60 307.20,-1.60"/>
    </edge>
    <edge id=":intersectionN_11" function="internal">
        <lane id=":intersectionN_11_0" index="0" speed="13.89" length="5.93" shape="292.80,-1.60 296.65,-1.05 298.40,-0.00"/>
    </edge>
    <edge id=":intersectionN_15" function="internal">
        <lane id=":intersectionN_15_0" index="0" speed="13.89" length="8.26" shape="298.40,-0.00 299.40,0.60 301.05,3.35 301.60,7.20"/>
    </edge>
    <edge id=":intersectionNE_0" function="internal">
        <lane id=":intersectionNE_0_0" index="0" speed="13.89" length="9.03" shape="598.40,7.20 598.05,4.75 597.00,3.00 595.25,1.95 592.80,1.60"/>
    </edge>
    <edge id=":intersectionNE_1" function="internal">
        <lane id=":intersectionNE_1_0" index="0" speed="13.89" length="14.40" shape="598.40,7.20 598.40,-7.20"/>
    </edge>
    <edge id=":intersectionNE_2" function="internal">
        <lane id=":intersectionNE_2_0" index="0" speed="13.89" length="5.93" shape="598.40,7.20 598.95,3.35 600.00,1.60"/>
    </edge>
    <edge id=":intersectionNE_12" function="internal">
        <lane id=":intersectionNE_12_0" index="0" speed="13.89" length="8.26" shape="600.00,1.60 600.60,0.60 603.35,-1.05 607.20,-1.60"/>
    </edge>
    <edge id=":intersectionNE_3" function="internal">
        <lane id=":intersectionNE_3_0" index="0" speed="13.89" length="9.03" shape="607.20,1.60 604.75,1.95 603.00,3.00 601.95,4.75 601.60,7.20"/>
    </edge>
    <edge id=":intersectionNE_4" function="internal">
        <lane id=":intersectionNE_4_0" index="0" speed="13.89" length="14.40" shape="607.20,1.60 592.80,1.60"/>
    </edge>
    <edge id=":intersectionNE_5" function="internal">
        <lane id=":intersectionNE_5_0" index="0" speed="13.89" length="5.93" shape="607.20,1.60 603.35,1.05 601.60,-0.00"/>
    </edge>
    <edge id=":intersectionNE_13" function="internal">
        <lane id=":intersectionNE_13_0" index="0" speed="13.89" length="8.26" shape="601.60,-0.00 600.60,-0.60 598.95,-3.35 598.40,-7.20"/>
    </edge>
    <edge id=":intersectionNE_6" function="internal">
        <lane id=":intersectionNE_6_0" index="0" speed="13.89" length="9.03" shape="601.60,-7.20 601.95,-4.75 603.00,-3.00 604.75,-1.95 607.20,-1.60"/>
    </edge>
    <edge id=":intersectionNE_7" function="internal">
        <lane id=":intersectionNE_7_0" index="0" speed="13.89" length="14.40" shape="601.60,-7.20 601.60,7.20"/>
    </edge>
    <edge id=":intersectionNE_8" function="internal">
        <lane id=":intersectionNE_8_0" index="0" speed="13.89" length="5.93" shape="601.60,-7.20 601.05,-3.35 600.00,-1.60"/>
    </edge>
    <edge id=":intersectionNE_14" function="internal">
        <lane id=":intersectionNE_14_0" index="0" speed="13.89" length="8.26" shape="600.00,-1.60 599.40,-0.60 596.65,1.05 592.80,1.60"/>
    </edge>
    <edge id=":intersectionNE_9" function="internal">
        <lane id=":intersectionNE_9_0" index="0" speed="13.89" length="9.03" shape="592.80,-1.60 595.25,-1.95 597.00,-3.00 598.05,-4.75 598.40,-7.20"/>
    </edge>
    <edge id=":intersectionNE_10" function="internal">
        <lane id=":intersectionNE_10_0" index="0" speed="13.89" length="14.40" shape="592.80,-1.60 607.20,-1.60"/>
    </edge>
    <edge id=":intersectionNE_11" function="internal">
        <lane id=":intersectionNE_11_0" index="0" speed="13.89" length="5.93" shape="592.80,-1.60 596.65,-1.05 598.40,0.00"/>
    </edge>
    <edge id=":intersectionNE_15" function="internal">
        <lane id=":intersectionNE_15_0" index="0" speed="13.89" length="8.26" shape="598.40,0.00 599.40,0.60 601.05,3.35 601.60,7.20"/>
    </edge>
    <edge id=":intersectionNW_0" function="internal">
        <lane id=":intersectionNW_0_0" index="0" speed="13.89" length="9.03" shape="-1.60,7.20 -1.95,4.75 -3.00,3.00 -4.75,1.95 -7.20,1.60"/>
    </edge>
    <edge id=":intersectionNW_1" function="internal">
        <lane id=":intersectionNW_1_0" index="0" speed="13.89" length="14.40" shape="-1.60,7.20 -1.60,-7.20"/>
    </edge>
    <edge id=":intersectionNW_2" function="internal">
        <lane id=":intersectionNW_2_0" index="0" speed="13.89" length="5.93" shape="-1.60,7.20 -1.05,3.35 0.00,1.60"/>
    </edge>
    <edge id=":intersectionNW_12" function="internal">
        <lane id=":intersectionNW_12_0" index="0" speed="13.89" length="8.26" shape="0.00,1.60 0.60,0.60 3.35,-1.05 7.20,-1.60"/>
    </edge>
    <edge id=":intersectionNW_3" function="internal">
        <lane id=":intersectionNW_3_0" index="0" speed="13.89" length="9.03" shape="7.20,1.60 4.75,1.95 3.00,3.00 1.95,4.75 1.60,7.20"/>
    </edge>
    <edge id=":intersectionNW_4" function="internal">
        <lane id=":intersectionNW_4_0" index="0" speed="13.89" length="14.40" shape="7.20,1.60 -7.20,1.60"/>
    </edge>
    <edge id=":intersectionNW_5" function="internal">
        <lane id=":intersectionNW_5_0" index="0" speed="13.89" length="5.93" shape="7.20,1.60 3.35,1.05 1.60,-0.00"/>
    </edge>
    <edge id=":intersectionNW_13" function="internal">
        <lane id=":intersectionNW_13_0" index="0" speed="13.89" length="8.26" shape="1.60,-0.00 0.60,-0.60 -1.05,-3.35 -1.60,-7.20"/>
    </edge>
    <edge id=":intersectionNW_6" function="internal">
        <lane id=":intersectionNW_6_0" index="0" speed="13.89" length="9.03" shape="1.60,-7.20 1.95,-4.75 3.00,-3.00 4.75,-1.95 7.20,-1.60"/>
    </edge>
    <edge id=":intersectionNW_7" function="internal">
        <lane id=":intersectionNW_7_0" index="0" speed="13.89" length="14.40" shape="1.60,-7.20 1.60,7.20"/>
    </edge>
    <edge id=":intersectionNW_8" function="internal">
        <lane id=":intersectionNW_8_0" index="0" speed="13.89" length="5.93" shape="1.60,-7.20 1.05,-3.35 -0.00,-1.60"/>
    </edge>
    <edge id=":intersectionNW_14" function="internal">
        <lane id=":intersectionNW_14_0" index="0" speed="13.89" length="8.26" shape="-0.00,-1.60 -0.60,-0.60 -3.35,1.05 -7.20,1.60"/>
    </edge>
    <edge id=":intersectionNW_9" function="internal">
        <lane id=":intersectionNW_9_0" index="0" speed="13.89" length="9.03" shape="-7.20,-1.60 -4.75,-1.95 -3.00,-3.00 -1.95,-4.75 -1.60,-7.20"/>
    </edge>
    <edge id=":intersectionNW_10" function="internal">
        <lane id=":intersectionNW_10_0" index="0" speed="13.89" length="14.40" shape="-7.20,-1.60 7.20,-1.60"/>
    </edge>
    <edge id=":intersectionNW_11" function="internal">
        <lane id=":intersectionNW_11_0" index="0" speed="13.89" length="5.93" shape="-7.20,-1.60 -3.35,-1.05 -1.60,0.00"/>
    </edge>
    <edge id=":intersectionNW_15" function="internal">
        <lane id=":intersectionNW_15_0" index="0" speed="13.89" length="8.26" shape="-1.60,0.00 -0.60,0.60 1.05,3.35 1.60,7.20"/>
    </edge>
    <edge id=":intersectionS_0" function="internal">
        <lane id=":intersectionS_0_0" index="0" speed="13.89" length="9.03" shape="298.40,-592.80 298.05,-595.25 297.00,-597.00 295.25,-598.05 292.80,-598.40"/>
    </edge>
    <edge id=":intersectionS_1" function="internal">
        <lane id=":intersectionS_1_0" index="0" speed="13.89" length="14.40" shape="298.40,-592.80 298.40,-607.20"/>
    </edge>
    <edge id=":intersectionS_2" function="internal">
        <lane id=":intersectionS_2_0" index="0" speed="13.89" length="5.93" shape="298.40,-592.80 298.95,-596.65 300.00,-598.40"/>
    </edge>
    <edge id=":intersectionS_12" function="internal">
        <lane id=":intersectionS_12_0" index="0" speed="13.89" length="8.26" shape="300.00,-598.40 300.60,-599.40 303.35,-601.05 307.20,-601.60"/>
    </edge>
    <edge id=":intersectionS_3" function="internal">
        <lane id=":intersectionS_3_0" index="0" speed="13.89" length="9.03" shape="307.20,-598.40 304.75,-598.05 303.00,-597.00 301.95,-595.25 301.60,-592.80"/>
    </edge>
    <edge id=":intersectionS_4" function="internal">
        <lane id=":intersectionS_4_0" index="0" speed="13.89" length="14.40" shape="307.20,-598.40 292.80,-598.40"/>
    </edge>
    <edge id=":intersectionS_5" function="internal">
        <lane id=":intersectionS_5_0" index="0" speed="13.89" length="5.93" shape="307.20,-598.40 303.35,-598.95 301.60,-600.00"/>
    </edge>
    <edge id=":intersectionS_13" function="internal">
        <lane id=":intersectionS_13_0" index="0" speed="13.89" length="8.26" shape="301.60,-600.00 300.60,-600.60 298.95,-603.35 298.40,-607.20"/>
    </edge>
    <edge id=":intersectionS_6" function="internal">
        <lane id=":intersectionS_6_0" index="0" speed="13.89" length="9.03" shape="301.60,-607.20 301.95,-604.75 303.00,-603.00 304.75,-601.95 307.20,-601.60"/>
    </edge>
    <edge id=":intersectionS_7" function="internal">
        <lane id=":intersectionS_7_0" index="0" speed="13.89" length="14.40" shape="301.60,-607.20 301.60,-592.80"/>
    </edge>
    <edge id=":intersectionS_8" function="internal">
        <lane id=":intersectionS_8_0" index="0" speed="13.89" length="5.93" shape="301.60,-607.20 301.05,-603.35 300.00,-601.60"/>
    </edge>
    <edge id=":intersectionS_14" function="internal">
        <lane id=":intersectionS_14_0" index="0" speed="13.89" length="8.26" shape="300.00,-601.60 299.40,-600.60 296.65,-598.95 292.80,-598.40"/>
    </edge>
    <edge id=":intersectionS_9" function="internal">
        <lane id=":intersectionS_9_0" index="0" speed="13.89" length="9.03" shape="292.80,-601.60 295.25,-601.95 297.00,-603.00 298.05,-604.75 298.40,-607.20"/>
    </edge>
    <edge id=":intersectionS_10" function="internal">
        <lane id=":intersectionS_10_0" index="0" speed="13.89" length="14.40" shape="292.80,-601.60 307.20,-601.60"/>
    </edge>
    <edge id=":intersectionS_11" function="internal">
        <lane id=":intersectionS_11_0" index="0" speed="13.89" length="5.93" shape="292.80,-601.60 296.65,-601.05 298.40,-600.00"/>
    </edge>
    <edge id=":intersectionS_15" function="internal">
        <lane id=":intersectionS_15_0" index="0" speed="13.89" length="8.26" shape="298.40,-600.00 299.40,-599.40 301.05,-596.65 301.60,-592.80"/>
    </edge>
    <edge id=":intersectionSE_0" function="internal">
        <lane id=":intersectionSE_0_0" index="0" speed="13.89" length="9.03" shape="598.40,-592.80 598.05,-595.25 597.00,-597.00 595.25,-598.05 592.80,-598.40"/>
    </edge>
    <edge id=":intersectionSE_1" function="internal">
        <lane id=":intersectionSE_1_0" index="0" speed="13.89" length="14.40" shape="598.40,-592.80 598.40,-607.20"/>
    </edge>
    <edge id=":intersectionSE_2" function="internal">
        <lane id=":intersectionSE_2_0" index="0" speed="13.89" length="5.93" shape="598.40,-592.80 598.95,-596.65 600.00,-598.40"/>
    </edge>
    <edge id=":intersectionSE_12" function="internal">
        <lane id=":intersectionSE_12_0" index="0" speed="13.89" length="8.26" shape="600.00,-598.40 600.60,-599.40 603.35,-601.05 607.20,-601.60"/>
    </edge>
    <edge id=":intersectionSE_3" function="internal">
        <lane id=":intersectionSE_3_0" index="0" speed="13.89" length="9.03" shape="607.20,-598.40 604.75,-598.05 603.00,-597.00 601.95,-595.25 601.60,-592.80"/>
    </edge>
    <edge id=":intersectionSE_4" function="internal">
        <lane id=":intersectionSE_4_0" index="0" speed="13.89" length="14.40" shape="607.20,-598.40 592.80,-598.40"/>
    </edge>
    <edge id=":intersectionSE_5" function="internal">
        <lane id=":intersectionSE_5_0" index="0" speed="13.89" length="5.93" shape="607.20,-598.40 603.35,-598.95 601.60,-600.00"/>
    </edge>
    <edge id=":intersectionSE_13" function="internal">
        <lane id=":intersectionSE_13_0" index="0" speed="13.89" length="8.26" shape="601.60,-600.00 600.60,-600.60 598.95,-603.35 598.40,-607.20"/>
    </edge>
    <edge id=":intersectionSE_6" function="internal">
        <lane id=":intersectionSE_6_0" index="0" speed="13.89" length="9.03" shape="601.60,-607.20 601.95,-604.75 603.00,-603.00 604.75,-601.95 607.20,-601.60"/>
    </edge>
    <edge id=":intersectionSE_7" function="internal">
        <lane id=":intersectionSE_7_0" index="0" speed="13.89" length="14.40" shape="601.60,-607.20 601.60,-592.80"/>
    </edge>
    <edge id=":intersectionSE_8" function="internal">
        <lane id=":intersectionSE_8_0" index="0" speed="13.89" length="5.93" shape="601.60,-607.20 601.05,-603.35 600.00,-601.60"/>
    </edge>
    <edge id=":intersectionSE_14" function="internal">
        <lane id=":intersectionSE_14_0" index="0" speed="13.89" length="8.26" shape="600.00,-601.60 599.40,-600.60 596.65,-598.95 592.80,-598.40"/>
    </edge>
    <edge id=":intersectionSE_9" function="internal">
        <lane id=":intersectionSE_9_0" index="0" speed="13.89" length="9.03" shape="592.80,-601.60 595.25,-601.95 597.00,-603.00 598.05,-604.75 598.40,-607.20"/>
    </edge>
    <edge id=":intersectionSE_10" function="internal">
        <lane id=":intersectionSE_10_0" index="0" speed="13.89" length="14.40" shape="592.80,-601.60 607.20,-601.60"/>
    </edge>
    <edge id=":intersectionSE_11" function="internal">
        <lane id=":intersectionSE_11_0" index="0" speed="13.89" length="5.93" shape="592.80,-601.60 596.65,-601.05 598.40,-600.00"/>
    </edge>
    <edge id=":intersectionSE_15" function="internal">
        <lane id=":intersectionSE_15_0" index="0" speed="13.89" length="8.26" shape="598.40,-600.00 599.40,-599.40 601.05,-596.65 601.60,-592.80"/>
    </edge>
    <edge id=":intersectionSW_0" function="internal">
        <lane id=":intersectionSW_0_0" index="0" speed="13.89" length="9.03" shape="-1.60,-592.80 -1.95,-595.25 -3.00,-597.00 -4.75,-598.05 -7.20,-598.40"/>
    </edge>
    <edge id=":intersectionSW_1" function="internal">
        <lane id=":intersectionSW_1_0" index="0" speed="13.89" length="14.40" shape="-1.60,-592.80 -1.60,-607.20"/>
    </edge>
    <edge id=":intersectionSW_2" function="internal">
        <lane id=":intersectionSW_2_0" index="0" speed="13.89" length="5.93" shape="-1.60,-592.80 -1.05,-596.65 0.00,-598.40"/>
    </edge>
    <edge id=":intersectionSW_12" function="internal">
        <lane id=":intersectionSW_12_0" index="0" speed="13.89" length="8.26" shape="0.00,-598.40 0.60,-599.40 3.35,-601.05 7.20,-601.60"/>
    </edge>
    <edge id=":intersectionSW_3" function="internal">
        <lane id=":intersectionSW_3_0" index="0" speed="13.89" length="9.03" shape="7.20,-598.40 4.75,-598.05 3.00,-597.00 1.95,-595.25 1.60,-592.80"/>
    </edge>
    <edge id=":intersectionSW_4" function="internal">
        <lane id=":intersectionSW_4_0" index="0" speed="13.89" length="14.40" shape="7.20,-598.40 -7.20,-598.40"/>
    </edge>
    <edge id=":intersectionSW_5" function="internal">
        <lane id=":intersectionSW_5_0" index="0" speed="13.89" length="5.93" shape="7.20,-598.40 3.35,-598.95 1.60,-600.00"/>
    </edge>
    <edge id=":intersectionSW_13" function="internal">
        <lane id=":intersectionSW_13_0" index="0" speed="13.89" length="8.26" shape="1.60,-600.00 0.60,-600.60 -1.05,-603.35 -1.60,-607.20"/>
    </edge>
    <edge id=":intersectionSW_6" function="internal">
        <lane id=":intersectionSW_6_0" index="0" speed="13.89" length="9.03" shape="1.60,-607.20 1.95,-604.75 3.00,-603.00 4.75,-601.95 7.20,-601.60"/>
    </edge>
    <edge id=":intersectionSW_7" function="internal">
        <lane id=":intersectionSW_7_0" index="0" speed="13.89" length="14.40" shape="1.60,-607.20 1.60,-592.80"/>
    </edge>
    <edge id=":intersectionSW_8" function="internal">
        <lane id=":intersectionSW_8_0" index="0" speed="13.89" length="5.93" shape="1.60,-607.20 1.05,-603.35 -0.00,-601.60"/>
    </edge>
    <edge id=":intersectionSW_14" function="internal">
        <lane id=":intersectionSW_14_0" index="0" speed="13.89" length="8.26" shape="-0.00,-601.60 -0.60,-600.60 -3.35,-598.95 -7.20,-598.40"/>
    </edge>
    <edge id=":intersectionSW_9" function="internal">
        <lane id=":intersectionSW_9_0" index="0" speed="13.89" length="9.03" shape="-7.20,-601.60 -4.75,-601.95 -3.00,-603.00 -1.95,-604.75 -1.60,-607.20"/>
    </edge>
    <edge id=":intersectionSW_10" function="internal">
        <lane id=":intersectionSW_10_0" index="0" speed="13.89" length="14.40" shape="-7.20,-601.60 7.20,-601.60"/>
    </edge>
    <edge id=":intersectionSW_11" function="internal">
        <lane id=":intersectionSW_11_0" index="0" speed="13.89" length="5.93" shape="-7.20,-601.60 -3.35,-601.05 -1.60,-600.00"/>
    </edge>
    <edge id=":intersectionSW_15" function="internal">
        <lane id=":intersectionSW_15_0" index="0" speed="13.89" length="8.26" shape="-1.60,-600.00 -0.60,-599.40 1.05,-596.65 1.60,-592.80"/>
    </edge>
    <edge id=":intersectionW_0" function="internal">
        <lane id=":intersectionW_0_0" index="0" speed="13.89" length="9.03" shape="-1.60,-292.80 -1.95,-295.25 -3.00,-297.00 -4.75,-298.05 -7.20,-298.40"/>
    </edge>
    <edge id=":intersectionW_1" function="internal">
        <lane id=":intersectionW_1_0" index="0" speed="13.89" length="14.40" shape="-1.60,-292.80 -1.60,-307.20"/>
    </edge>
    <edge id=":intersectionW_2" function="internal">
        <lane id=":intersectionW_2_0" index="0" speed="13.89" length="5.93" shape="-1.60,-292.80 -1.05,-296.65 -0.00,-298.40"/>
    </edge>
    <edge id=":intersectionW_12" function="internal">
        <lane id=":intersectionW_12_0" index="0" speed="13.89" length="8.26" shape="-0.00,-298.40 0.60,-299.40 3.35,-301.05 7.20,-301.60"/>
    </edge>
    <edge id=":intersectionW_3" function="internal">
        <lane id=":intersectionW_3_0" index="0" speed="13.89" length="9.03" shape="7.20,-298.40 4.75,-298.05 3.00,-297.00 1.95,-295.25 1.60,-292.80"/>
    </edge>
    <edge id=":intersectionW_4" function="internal">
        <lane id=":intersectionW_4_0" index="0" speed="13.89" length="14.40" shape="7.20,-298.40 -7.20,-298.40"/>
    </edge>
    <edge id=":intersectionW_5" function="internal">
        <lane id=":intersectionW_5_0" index="0" speed="13.89" length="5.93" shape="7.20,-298.40 3.35,-298.95 1.60,-300.00"/>
    </edge>
    <edge id=":intersectionW_13" function="internal">
        <lane id=":intersectionW_13_0" index="0" speed="13.89" length="8.26" shape="1.60,-300.00 0.60,-300.60 -1.05,-303.35 -1.60,-307.20"/>
    </edge>
    <edge id=":intersectionW_6" function="internal">
        <lane id=":intersectionW_6_0" index="0" speed="13.89" length="9.03" shape="1.60,-307.20 1.95,-304.75 3.00,-303.00 4.75,-301.95 7.20,-301.60"/>
    </edge>
    <edge id=":intersectionW_7" function="internal">
        <lane id=":intersectionW_7_0" index="0" speed="13.89" length="14.40" shape="1.60,-307.20 1.60,-292.80"/>
    </edge>
    <edge id=":intersectionW_8" function="internal">
        <lane id=":intersectionW_8_0" index="0" speed="13.89" length="5.93" shape="1.60,-307.20 1.05,-303.35 0.00,-301.60"/>
    </edge>
    <edge id=":intersectionW_14" function="internal">
        <lane id=":intersectionW_14_0" index="0" speed="13.89" length="8.26" shape="0.00,-301.60 -0.60,-300.60 -3.35,-298.95 -7.20,-298.40"/>
    </edge>
    <edge id=":intersectionW_9" function="internal">
        <lane id=":intersectionW_9_0" index="0" speed="13.89" length="9.03" shape="-7.20,-301.60 -4.75,-301.95 -3.00,-303.00 -1.95,-304.75 -1.60,-307.20"/>
    </edge>
    <edge id=":intersectionW_10" function="internal">