<?xml version="1.0" encoding="UTF-8"?>

<!-- generated on 02/24/20 22:30:31 by Eclipse SUMO netedit Version 1.3.1
<configuration xmlns:xsi="http://www.w3.org/2001/XMLSchema-instance" xsi:noNamespaceSchemaLocation="http://sumo.dlr.de/xsd/netconvertConfiguration.xsd">

    <input>
        <sumo-net-file value="C:\Users\Max%20Brenner\PycharmProjects\MyTraci\data\4_4_intersections.net.xml"/>
    </input>

    <output>
        <output-file value="C:\Users\Max%20Brenner\PycharmProjects\MyTraci\data\4_4_intersections.net.xml"/>
    </output>

    <processing>
        <geometry.max-grade.fix value="false"/>
        <offset.disable-normalization value="true"/>
        <opposites.guess.fix-lengths value="true"/>
        <lefthand value="false"/>
    </processing>

    <junctions>
        <no-turnarounds value="true"/>
        <junctions.corner-detail value="0"/>
        <junctions.limit-turn-speed value="-1"/>
        <rectangular-lane-cut value="false"/>
    </junctions>

    <pedestrian>
        <walkingareas value="false"/>
    </pedestrian>

</configuration>
-->

<net version="1.3" xmlns:xsi="http://www.w3.org/2001/XMLSchema-instance" xsi:noNamespaceSchemaLocation="http://sumo.dlr.de/xsd/net_file.xsd">

    <location netOffset="510.00,510.00" convBoundary="-300.00,-1200.00,1200.00,300.00" origBoundary="-510.00,-510.00,510.00,510.00" projParameter="!"/>

    <edge id=":intersectionEight_0" function="internal">
        <lane id=":intersectionEight_0_0" index="0" speed="13.89" length="9.03" shape="898.40,-292.80 898.05,-295.25 897.00,-297.00 895.25,-298.05 892.80,-298.40"/>
    </edge>
    <edge id=":intersectionEight_1" function="internal">
        <lane id=":intersectionEight_1_0" index="0" speed="13.89" length="14.40" shape="898.40,-292.80 898.40,-307.20"/>
    </edge>
    <edge id=":intersectionEight_2" function="internal">
        <lane id=":intersectionEight_2_0" index="0" speed="13.89" length="5.93" shape="898.40,-292.80 898.95,-296.65 900.00,-298.40"/>
    </edge>
    <edge id=":intersectionEight_12" function="internal">
        <lane id=":intersectionEight_12_0" index="0" speed="13.89" length="8.26" shape="900.00,-298.40 900.60,-299.40 903.35,-301.05 907.20,-301.60"/>
    </edge>
    <edge id=":intersectionEight_3" function="internal">
        <lane id=":intersectionEight_3_0" index="0" speed="13.89" length="9.03" shape="907.20,-298.40 904.75,-298.05 903.00,-297.00 901.95,-295.25 901.60,-292.80"/>
    </edge>
    <edge id=":intersectionEight_4" function="internal">
        <lane id=":intersectionEight_4_0" index="0" speed="13.89" length="14.40" shape="907.20,-298.40 892.80,-298.40"/>
    </edge>
    <edge id=":intersectionEight_5" function="internal">
        <lane id=":intersectionEight_5_0" index="0" speed="13.89" length="5.93" shape="907.20,-298.40 903.35,-298.95 901.60,-300.00"/>
    </edge>
    <edge id=":intersectionEight_13" function="internal">
        <lane id=":intersectionEight_13_0" index="0" speed="13.89" length="8.26" shape="901.60,-300.00 900.60,-300.60 898.95,-303.35 898.40,-307.20"/>
    </edge>
    <edge id=":intersectionEight_6" function="internal">
        <lane id=":intersectionEight_6_0" index="0" speed="13.89" length="9.03" shape="901.60,-307.20 901.95,-304.75 903.00,-303.00 904.75,-301.95 907.20,-301.60"/>
    </edge>
    <edge id=":intersectionEight_7" function="internal">
        <lane id=":intersectionEight_7_0" index="0" speed="13.89" length="14.40" shape="901.60,-307.20 901.60,-292.80"/>
    </edge>
    <edge id=":intersectionEight_8" function="internal">
        <lane id=":intersectionEight_8_0" index="0" speed="13.89" length="5.93" shape="901.60,-307.20 901.05,-303.35 900.00,-301.60"/>
    </edge>
    <edge id=":intersectionEight_14" function="internal">
        <lane id=":intersectionEight_14_0" index="0" speed="13.89" length="8.26" shape="900.00,-301.60 899.40,-300.60 896.65,-298.95 892.80,-298.40"/>
    </edge>
    <edge id=":intersectionEight_9" function="internal">
        <lane id=":intersectionEight_9_0" index="0" speed="13.89" length="9.03" shape="892.80,-301.60 895.25,-301.95 897.00,-303.00 898.05,-304.75 898.40,-307.20"/>
    </edge>
    <edge id=":intersectionEight_10" function="internal">
        <lane id=":intersectionEight_10_0" index="0" speed="13.89" length="14.40" shape="892.80,-301.60 907.20,-301.60"/>
    </edge>
    <edge id=":intersectionEight_11" function="internal">
        <lane id=":intersectionEight_11_0" index="0" speed="13.89" length="5.93" shape="892.80,-301.60 896.65,-301.05 898.40,-300.00"/>
    </edge>
    <edge id=":intersectionEight_15" function="internal">
        <lane id=":intersectionEight_15_0" index="0" speed="13.89" length="8.26" shape="898.40,-300.00 899.40,-299.40 901.05,-296.65 901.60,-292.80"/>
    </edge>
    <edge id=":intersectionEleven_0" function="internal">
        <lane id=":intersectionEleven_0_0" index="0" speed="13.89" length="9.03" shape="598.40,-592.80 598.05,-595.25 597.00,-597.00 595.25,-598.05 592.80,-598.40"/>
    </edge>
    <edge id=":intersectionEleven_1" function="internal">
        <lane id=":intersectionEleven_1_0" index="0" speed="13.89" length="14.40" shape="598.40,-592.80 598.40,-607.20"/>
    </edge>
    <edge id=":intersectionEleven_2" function="internal">
        <lane id=":intersectionEleven_2_0" index="0" speed="13.89" length="5.93" shape="598.40,-592.80 598.95,-596.65 600.00,-598.40"/>
    </edge>
    <edge id=":intersectionEleven_12" function="internal">
        <lane id=":intersectionEleven_12_0" index="0" speed="13.89" length="8.26" shape="600.00,-598.40 600.60,-599.40 603.35,-601.05 607.20,-601.60"/>
    </edge>
    <edge id=":intersectionEleven_3" function="internal">
        <lane id=":intersectionEleven_3_0" index="0" speed="13.89" length="9.03" shape="607.20,-598.40 604.75,-598.05 603.00,-597.00 601.95,-595.25 601.60,-592.80"/>
    </edge>
    <edge id=":intersectionEleven_4" function="internal">
        <lane id=":intersectionEleven_4_0" index="0" speed="13.89" length="14.40" shape="607.20,-598.40 592.80,-598.40"/>
    </edge>
    <edge id=":intersectionEleven_5" function="internal">
        <lane id=":intersectionEleven_5_0" index="0" speed="13.89" length="5.93" shape="607.20,-598.40 603.35,-598.95 601.60,-600.00"/>
    </edge>
    <edge id=":intersectionEleven_13" function="internal">
        <lane id=":intersectionEleven_13_0" index="0" speed="13.89" length="8.26" shape="601.60,-600.00 600.60,-600.60 598.95,-603.35 598.40,-607.20"/>
    </edge>
    <edge id=":intersectionEleven_6" function="internal">
        <lane id=":intersectionEleven_6_0" index="0" speed="13.89" length="9.03" shape="601.60,-607.20 601.95,-604.75 603.00,-603.00 604.75,-601.95 607.20,-601.60"/>
    </edge>
    <edge id=":intersectionEleven_7" function="internal">
        <lane id=":intersectionEleven_7_0" index="0" speed="13.89" length="14.40" shape="601.60,-607.20 601.60,-592.80"/>
    </edge>
    <edge id=":intersectionEleven_8" function="internal">
        <lane id=":intersectionEleven_8_0" index="0" speed="13.89" length="5.93" shape="601.60,-607.20 601.05,-603.35 600.00,-601.60"/>
    </edge>
    <edge id=":intersectionEleven_14" function="internal">
        <lane id=":intersectionEleven_14_0" index="0" speed="13.89" length="8.26" shape="600.00,-601.60 599.40,-600.60 596.65,-598.95 592.80,-598.40"/>
    </edge>
    <edge id=":intersectionEleven_9" function="internal">
        <lane id=":intersectionEleven_9_0" index="0" speed="13.89" length="9.03" shape="592.80,-601.60 595.25,-601.95 597.00,-603.00 598.05,-604.75 598.40,-607.20"/>
    </edge>
    <edge id=":intersectionEleven_10" function="internal">
        <lane id=":intersectionEleven_10_0" index="0" speed="13.89" length="14.40" shape="592.80,-601.60 607.20,-601.60"/>
    </edge>
    <edge id=":intersectionEleven_11" function="internal">
        <lane id=":intersectionEleven_11_0" index="0" speed="13.89" length="5.93" shape="592.80,-601.60 596.65,-601.05 598.40,-600.00"/>
    </edge>
    <edge id=":intersectionEleven_15" function="internal">
        <lane id=":intersectionEleven_15_0" index="0" speed="13.89" length="8.26" shape="598.40,-600.00 599.40,-599.40 601.05,-596.65 601.60,-592.80"/>
    </edge>
    <edge id=":intersectionFifthteen_0" function="internal">
        <lane id=":intersectionFifthteen_0_0" index="0" speed="13.89" length="9.03" shape="598.40,-892.80 598.05,-895.25 597.00,-897.00 595.25,-898.05 592.80,-898.40"/>
    </edge>
    <edge id=":intersectionFifthteen_1" function="internal">
        <lane id=":intersectionFifthteen_1_0" index="0" speed="13.89" length="14.40" shape="598.40,-892.80 598.40,-907.20"/>
    </edge>
    <edge id=":intersectionFifthteen_2" function="internal">
        <lane id=":intersectionFifthteen_2_0" index="0" speed="13.89" length="5.93" shape="598.40,-892.80 598.95,-896.65 600.00,-898.40"/>
    </edge>
    <edge id=":intersectionFifthteen_12" function="internal">
        <lane id=":intersectionFifthteen_12_0" index="0" speed="13.89" length="8.26" shape="600.00,-898.40 600.60,-899.40 603.35,-901.05 607.20,-901.60"/>
    </edge>
    <edge id=":intersectionFifthteen_3" function="internal">
        <lane id=":intersectionFifthteen_3_0" index="0" speed="13.89" length="9.03" shape="607.20,-898.40 604.75,-898.05 603.00,-897.00 601.95,-895.25 601.60,-892.80"/>
    </edge>
    <edge id=":intersectionFifthteen_4" function="internal">
        <lane id=":intersectionFifthteen_4_0" index="0" speed="13.89" length="14.40" shape="607.20,-898.40 592.80,-898.40"/>
    </edge>
    <edge id=":intersectionFifthteen_5" function="internal">
        <lane id=":intersectionFifthteen_5_0" index="0" speed="13.89" length="5.93" shape="607.20,-898.40 603.35,-898.95 601.60,-900.00"/>
    </edge>
    <edge id=":intersectionFifthteen_13" function="internal">
        <lane id=":intersectionFifthteen_13_0" index="0" speed="13.89" length="8.26" shape="601.60,-900.00 600.60,-900.60 598.95,-903.35 598.40,-907.20"/>
    </edge>
    <edge id=":intersectionFifthteen_6" function="internal">
        <lane id=":intersectionFifthteen_6_0" index="0" speed="13.89" length="9.03" shape="601.60,-907.20 601.95,-904.75 603.00,-903.00 604.75,-901.95 607.20,-901.60"/>
    </edge>
    <edge id=":intersectionFifthteen_7" function="internal">
        <lane id=":intersectionFifthteen_7_0" index="0" speed="13.89" length="14.40" shape="601.60,-907.20 601.60,-892.80"/>
    </edge>
    <edge id=":intersectionFifthteen_8" function="internal">
        <lane id=":intersectionFifthteen_8_0" index="0" speed="13.89" length="5.93" shape="601.60,-907.20 601.05,-903.35 600.00,-901.60"/>
    </edge>
    <edge id=":intersectionFifthteen_14" function="internal">
        <lane id=":intersectionFifthteen_14_0" index="0" speed="13.89" length="8.26" shape="600.00,-901.60 599.40,-900.60 596.65,-898.95 592.80,-898.40"/>
    </edge>
    <edge id=":intersectionFifthteen_9" function="internal">
        <lane id=":intersectionFifthteen_9_0" index="0" speed="13.89" length="9.03" shape="592.80,-901.60 595.25,-901.95 597.00,-903.00 598.05,-904.75 598.40,-907.20"/>
    </edge>
    <edge id=":intersectionFifthteen_10" function="internal">
        <lane id=":intersectionFifthteen_10_0" index="0" speed="13.89" length="14.40" shape="592.80,-901.60 607.20,-901.60"/>
    </edge>
    <edge id=":intersectionFifthteen_11" function="internal">
        <lane id=":intersectionFifthteen_11_0" index="0" speed="13.89" length="5.93" shape="592.80,-901.60 596.65,-901.05 598.40,-900.00"/>
    </edge>
    <edge id=":intersectionFifthteen_15" function="internal">
        <lane id=":intersectionFifthteen_15_0" index="0" speed="13.89" length="8.26" shape="598.40,-900.00 599.40,-899.40 601.05,-896.65 601.60,-892.80"/>
    </edge>
    <edge id=":intersectionFive_0" function="internal">
        <lane id=":intersectionFive_0_0" index="0" speed="13.89" length="9.03" shape="-1.60,-292.80 -1.95,-295.25 -3.00,-297.00 -4.75,-298.05 -7.20,-298.40"/>
    </edge>
    <edge id=":intersectionFive_1" function="internal">
        <lane id=":intersectionFive_1_0" index="0" speed="13.89" length="14.40" shape="-1.60,-292.80 -1.60,-307.20"/>
    </edge>
    <edge id=":intersectionFive_2" function="internal">
        <lane id=":intersectionFive_2_0" index="0" speed="13.89" length="5.93" shape="-1.60,-292.80 -1.05,-296.65 -0.00,-298.40"/>
    </edge>
    <edge id=":intersectionFive_12" function="internal">
        <lane id=":intersectionFive_12_0" index="0" speed="13.89" length="8.26" shape="-0.00,-298.40 0.60,-299.40 3.35,-301.05 7.20,-301.60"/>
    </edge>
    <edge id=":intersectionFive_3" function="internal">
        <lane id=":intersectionFive_3_0" index="0" speed="13.89" length="9.03" shape="7.20,-298.40 4.75,-298.05 3.00,-297.00 1.95,-295.25 1.60,-292.80"/>
    </edge>
    <edge id=":intersectionFive_4" function="internal">
        <lane id=":intersectionFive_4_0" index="0" speed="13.89" length="14.40" shape="7.20,-298.40 -7.20,-298.40"/>
    </edge>
    <edge id=":intersectionFive_5" function="internal">
        <lane id=":intersectionFive_5_0" index="0" speed="13.89" length="5.93" shape="7.20,-298.40 3.35,-298.95 1.60,-300.00"/>
    </edge>
    <edge id=":intersectionFive_13" function="internal">
        <lane id=":intersectionFive_13_0" index="0" speed="13.89" length="8.26" shape="1.60,-300.00 0.60,-300.60 -1.05,-303.35 -1.60,-307.20"/>
    </edge>
    <edge id=":intersectionFive_6" function="internal">
        <lane id=":intersectionFive_6_0" index="0" speed="13.89" length="9.03" shape="1.60,-307.20 1.95,-304.75 3.00,-303.00 4.75,-301.95 7.20,-301.60"/>
    </edge>
    <edge id=":intersectionFive_7" function="internal">
        <lane id=":intersectionFive_7_0" index="0" speed="13.89" length="14.40" shape="1.60,-307.20 1.60,-292.80"/>
    </edge>
    <edge id=":intersectionFive_8" function="internal">
        <lane id=":intersectionFive_8_0" index="0" speed="13.89" length="5.93" shape="1.60,-307.20 1.05,-303.35 0.00,-301.60"/>
    </edge>
    <edge id=":intersectionFive_14" function="internal">
        <lane id=":intersectionFive_14_0" index="0" speed="13.89" length="8.26" shape="0.00,-301.60 -0.60,-300.60 -3.35,-298.95 -7.20,-298.40"/>
    </edge>
    <edge id=":intersectionFive_9" function="internal">
        <lane id=":intersectionFive_9_0" index="0" speed="13.89" length="9.03" shape="-7.20,-301.60 -4.75,-301.95 -3.00,-303.00 -1.95,-304.75 -1.60,-307.20"/>
    </edge>
    <edge id=":intersectionFive_10" function="internal">
        <lane id=":intersectionFive_10_0" index="0" speed="13.89" length="14.40" shape="-7.20,-301.60 7.20,-301.60"/>
    </edge>
    <edge id=":intersectionFive_11" function="internal">
        <lane id=":intersectionFive_11_0" index="0" speed="13.89" length="5.93" shape="-7.20,-301.60 -3.35,-301.05 -1.60,-300.00"/>
    </edge>
    <edge id=":intersectionFive_15" function="internal">
        <lane id=":intersectionFive_15_0" index="0" speed="13.89" length="8.26" shape="-1.60,-300.00 -0.60,-299.40 1.05,-296.65 1.60,-292.80"/>
    </edge>
    <edge id=":intersectionFour_0" function="internal">
        <lane id=":intersectionFour_0_0" index="0" speed="13.89" length="9.03" shape="898.40,7.20 898.05,4.75 897.00,3.00 895.25,1.95 892.80,1.60"/>
    </edge>
    <edge id=":intersectionFour_1" function="internal">
        <lane id=":intersectionFour_1_0" index="0" speed="13.89" length="14.40" shape="898.40,7.20 898.40,-7.20"/>
    </edge>
    <edge id=":intersectionFour_2" function="internal">
        <lane id=":intersectionFour_2_0" index="0" speed="13.89" length="5.93" shape="898.40,7.20 898.95,3.35 900.00,1.60"/>
    </edge>
    <edge id=":intersectionFour_12" function="internal">
        <lane id=":intersectionFour_12_0" index="0" speed="13.89" length="8.26" shape="900.00,1.60 900.60,0.60 903.35,-1.05 907.20,-1.60"/>
    </edge>
    <edge id=":intersectionFour_3" function="internal">
        <lane id=":intersectionFour_3_0" index="0" speed="13.89" length="9.03" shape="907.20,1.60 904.75,1.95 903.00,3.00 901.95,4.75 901.60,7.20"/>
    </edge>
    <edge id=":intersectionFour_4" function="internal">
        <lane id=":intersectionFour_4_0" index="0" speed="13.89" length="14.40" shape="907.20,1.60 892.80,1.60"/>
    </edge>
    <edge id=":intersectionFour_5" function="internal">
        <lane id=":intersectionFour_5_0" index="0" speed="13.89" length="5.93" shape="907.20,1.60 903.35,1.05 901.60,-0.00"/>
    </edge>
    <edge id=":intersectionFour_13" function="internal">
        <lane id=":intersectionFour_13_0" index="0" speed="13.89" length="8.26" shape="901.60,-0.00 900.60,-0.60 898.95,-3.35 898.40,-7.20"/>
    </edge>
    <edge id=":intersectionFour_6" function="internal">
        <lane id=":intersectionFour_6_0" index="0" speed="13.89" length="9.03" shape="901.60,-7.20 901.95,-4.75 903.00,-3.00 904.75,-1.95 907.20,-1.60"/>
    </edge>
    <edge id=":intersectionFour_7" function="internal">
        <lane id=":intersectionFour_7_0" index="0" speed="13.89" length="14.40" shape="901.60,-7.20 901.60,7.20"/>
    </edge>
    <edge id=":intersectionFour_8" function="internal">
        <lane id=":intersectionFour_8_0" index="0" speed="13.89" length="5.93" shape="901.60,-7.20 901.05,-3.35 900.00,-1.60"/>
    </edge>
    <edge id=":intersectionFour_14" function="internal">
        <lane id=":intersectionFour_14_0" index="0" speed="13.89" length="8.26" shape="900.00,-1.60 899.40,-0.60 896.65,1.05 892.80,1.60"/>
    </edge>
    <edge id=":intersectionFour_9" function="internal">
        <lane id=":intersectionFour_9_0" index="0" speed="13.89" length="9.03" shape="892.80,-1.60 895.25,-1.95 897.00,-3.00 898.05,-4.75 898.40,-7.20"/>
    </edge>
    <edge id=":intersectionFour_10" function="internal">
        <lane id=":intersectionFour_10_0" index="0" speed="13.89" length="14.40" shape="892.80,-1.60 907.20,-1.60"/>
    </edge>
    <edge id=":intersectionFour_11" function="internal">
        <lane id=":intersectionFour_11_0" index="0" speed="13.89" length="5.93" shape="892.80,-1.60 896.65,-1.05 898.40,0.00"/>
    </edge>
    <edge id=":intersectionFour_15" function="internal">
        <lane id=":intersectionFour_15_0" index="0" speed="13.89" length="8.26" shape="898.40,0.00 899.40,0.60 901.05,3.35 901.60,7.20"/>
    </edge>
    <edge id=":intersectionFourteen_0" function="internal">
        <lane id=":intersectionFourteen_0_0" index="0" speed="13.89" length="9.03" shape="298.40,-892.80 298.05,-895.25 297.00,-897.00 295.25,-898.05 292.80,-898.40"/>
    </edge>
    <edge id=":intersectionFourteen_1" function="internal">
        <lane id=":intersectionFourteen_1_0" index="0" speed="13.89" length="14.40" shape="298.40,-892.80 298.40,-907.20"/>
    </edge>
    <edge id=":intersectionFourteen_2" function="internal">
        <lane id=":intersectionFourteen_2_0" index="0" speed="13.89" length="5.93" shape="298.40,-892.80 298.95,-896.65 300.00,-898.40"/>
    </edge>
    <edge id=":intersectionFourteen_12" function="internal">
        <lane id=":intersectionFourteen_12_0" index="0" speed="13.89" length="8.26" shape="300.00,-898.40 300.60,-899.40 303.35,-901.05 307.20,-901.60"/>
    </edge>
    <edge id=":intersectionFourteen_3" function="internal">
        <lane id=":intersectionFourteen_3_0" index="0" speed="13.89" length="9.03" shape="307.20,-898.40 304.75,-898.05 303.00,-897.00 301.95,-895.25 301.60,-892.80"/>
    </edge>
    <edge id=":intersectionFourteen_4" function="internal">
        <lane id=":intersectionFourteen_4_0" index="0" speed="13.89" length="14.40" shape="307.20,-898.40 292.80,-898.40"/>
    </edge>
    <edge id=":intersectionFourteen_5" function="internal">
        <lane id=":intersectionFourteen_5_0" index="0" speed="13.89" length="5.93" shape="307.20,-898.40 303.35,-898.95 301.60,-900.00"/>
    </edge>
    <edge id=":intersectionFourteen_13" function="internal">
        <lane id=":intersectionFourteen_13_0" index="0" speed="13.89" length="8.26" shape="301.60,-900.00 300.60,-900.60 298.95,-903.35 298.40,-907.20"/>
    </edge>
    <edge id=":intersectionFourteen_6" function="internal">
        <lane id=":intersectionFourteen_6_0" index="0" speed="13.89" length="9.03" shape="301.60,-907.20 301.95,-904.75 303.00,-903.00 304.75,-901.95 307.20,-901.60"/>
    </edge>
    <edge id=":intersectionFourteen_7" function="internal">
        <lane id=":intersectionFourteen_7_0" index="0" speed="13.89" length="14.40" shape="301.60,-907.20 301.60,-892.80"/>
    </edge>
    <edge id=":intersectionFourteen_8" function="internal">
        <lane id=":intersectionFourteen_8_0" index="0" speed="13.89" length="5.93" shape="301.60,-907.20 301.05,-903.35 300.00,-901.60"/>
    </edge>
    <edge id=":intersectionFourteen_14" function="internal">
        <lane id=":intersectionFourteen_14_0" index="0" speed="13.89" length="8.26" shape="300.00,-901.60 299.40,-900.60 296.65,-898.95 292.80,-898.40"/>
    </edge>
    <edge id=":intersectionFourteen_9" function="internal">
        <lane id=":intersectionFourteen_9_0" index="0" speed="13.89" length="9.03" shape="292.80,-901.60 295.25,-901.95 297.00,-903.00 298.05,-904.75 298.40,-907.20"/>
    </edge>
    <edge id=":intersectionFourteen_10" function="internal">
        <lane id=":intersectionFourteen_10_0" index="0" speed="13.89" length="14.40" shape="292.80,-901.60 307.20,-901.60"/>
    </edge>
    <edge id=":intersectionFourteen_11" function="internal">
        <lane id=":intersectionFourteen_11_0" index="0" speed="13.89" length="5.93" shape="292.80,-901.60 296.65,-901.05 298.40,-900.00"/>
    </edge>
    <edge id=":intersectionFourteen_15" function="internal">
        <lane id=":intersectionFourteen_15_0" index="0" speed="13.89" length="8.26" shape="298.40,-900.00 299.40,-899.40 301.05,-896.65 301.60,-892.80"/>
    </edge>
    <edge id=":intersectionNine_0" function="internal">
        <lane id=":intersectionNine_0_0" index="0" speed="13.89" length="9.03" shape="-1.60,-592.80 -1.95,-595.25 -3.00,-597.00 -4.75,-598.05 -7.20,-598.40"/>
    </edge>
    <edge id=":intersectionNine_1" function="internal">
        <lane id=":intersectionNine_1_0" index="0" speed="13.89" length="14.40" shape="-1.60,-592.80 -1.60,-607.20"/>
    </edge>
    <edge id=":intersectionNine_2" function="internal">
        <lane id=":intersectionNine_2_0" index="0" speed="13.89" length="5.93" shape="-1.60,-592.80 -1.05,-596.65 0.00,-598.40"/>
    </edge>
    <edge id=":intersectionNine_12" function="internal">
        <lane id=":intersectionNine_12_0" index="0" speed="13.89" length="8.26" shape="0.00,-598.40 0.60,-599.40 3.35,-601.05 7.20,-601.60"/>
    </edge>
    <edge id=":intersectionNine_3" function="internal">
        <lane id=":intersectionNine_3_0" index="0" speed="13.89" length="9.03" shape="7.20,-598.40 4.75,-598.05 3.00,-597.00 1.95,-595.25 1.60,-592.80"/>
    </edge>
    <edge id=":intersectionNine_4" function="internal">
        <lane id=":intersectionNine_4_0" index="0" speed="13.89" length="14.40" shape="7.20,-598.40 -7.20,-598.40"/>
    </edge>
    <edge id=":intersectionNine_5" function="internal">
        <lane id=":intersectionNine_5_0" index="0" speed="13.89" length="5.93" shape="7.20,-598.40 3.35,-598.95 1.60,-600.00"/>
    </edge>
    <edge id=":intersectionNine_13" function="internal">
        <lane id=":intersectionNine_13_0" index="0" speed="13.89" length="8.26" shape="1.60,-600.00 0.60,-600.60 -1.05,-603.35 -1.60,-607.20"/>
    </edge>
    <edge id=":intersectionNine_6" function="internal">
        <lane id=":intersectionNine_6_0" index="0" speed="13.89" length="9.03" shape="1.60,-607.20 1.95,-604.75 3.00,-603.00 4.75,-601.95 7.20,-601.60"/>
    </edge>
    <edge id=":intersectionNine_7" function="internal">
        <lane id=":intersectionNine_7_0" index="0" speed="13.89" length="14.40" shape="1.60,-607.20 1.60,-592.80"/>
    </edge>
    <edge id=":intersectionNine_8" function="internal">
        <lane id=":intersectionNine_8_0" index="0" speed="13.89" length="5.93" shape="1.60,-607.20 1.05,-603.35 -0.00,-601.60"/>
    </edge>
    <edge id=":intersectionNine_14" function="internal">
        <lane id=":intersectionNine_14_0" index="0" speed="13.89" length="8.26" shape="-0.00,-601.60 -0.60,-600.60 -3.35,-598.95 -7.20,-598.40"/>
    </edge>
    <edge id=":intersectionNine_9" function="internal">
        <lane id=":intersectionNine_9_0" index="0" speed="13.89" length="9.03" shape="-7.20,-601.60 -4.75,-601.95 -3.00,-603.00 -1.95,-604.75 -1.60,-607.20"/>
    </edge>
    <edge id=":intersectionNine_10" function="internal">
        <lane id=":intersectionNine_10_0" index="0" speed="13.89" length="14.40" shape="-7.20,-601.60 7.20,-601.60"/>
    </edge>
    <edge id=":intersectionNine_11" function="internal">
        <lane id=":intersectionNine_11_0" index="0" speed="13.89" length="5.93" shape="-7.20,-601.60 -3.35,-601.05 -1.60,-600.00"/>
    </edge>
    <edge id=":intersectionNine_15" function="internal">
        <lane id=":intersectionNine_15_0" index="0" speed="13.89" length="8.26" shape="-1.60,-600.00 -0.60,-599.40 1.05,-596.65 1.60,-592.80"/>
    </edge>
    <edge id=":intersectionOne_0" function="internal">
        <lane id=":intersectionOne_0_0" index="0" speed="13.89" length="9.03" shape="-1.60,7.20 -1.95,4.75 -3.00,3.00 -4.75,1.95 -7.20,1.60"/>
    </edge>
    <edge id=":intersectionOne_1" function="internal">
        <lane id=":intersectionOne_1_0" index="0" speed="13.89" length="14.40" shape="-1.60,7.20 -1.60,-7.20"/>
    </edge>
    <edge id=":intersectionOne_2" function="internal">
        <lane id=":intersectionOne_2_0" index="0" speed="13.89" length="5.93" shape="-1.60,7.20 -1.05,3.35 0.00,1.60"/>
    </edge>
    <edge id=":intersectionOne_12" function="internal">
        <lane id=":intersectionOne_12_0" index="0" speed="13.89" length="8.26" shape="0.00,1.60 0.60,0.60 3.35,-1.05 7.20,-1.60"/>
    </edge>
    <edge id=":intersectionOne_3" function="internal">
        <lane id=":intersectionOne_3_0" index="0" speed="13.89" length="9.03" shape="7.20,1.60 4.75,1.95 3.00,3.00 1.95,4.75 1.60,7.20"/>
    </edge>
    <edge id=":intersectionOne_4" function="internal">
        <lane id=":intersectionOne_4_0" index="0" speed="13.89" length="14.40" shape="7.20,1.60 -7.20,1.60"/>
    </edge>
    <edge id=":intersectionOne_5" function="internal">
        <lane id=":intersectionOne_5_0" index="0" speed="13.89" length="5.93" shape="7.20,1.60 3.35,1.05 1.60,-0.00"/>
    </edge>
    <edge id=":intersectionOne_13" function="internal">
        <lane id=":intersectionOne_13_0" index="0" speed="13.89" length="8.26" shape="1.60,-0.00 0.60,-0.60 -1.05,-3.35 -1.60,-7.20"/>
    </edge>
    <edge id=":intersectionOne_6" function="internal">
        <lane id=":intersectionOne_6_0" index="0" speed="13.89" length="9.03" shape="1.60,-7.20 1.95,-4.75 3.00,-3.00 4.75,-1.95 7.20,-1.60"/>
    </edge>
    <edge id=":intersectionOne_7" function="internal">
        <lane id=":intersectionOne_7_0" index="0" speed="13.89" length="14.40" shape="1.60,-7.20 1.60,7.20"/>
    </edge>
    <edge id=":intersectionOne_8" function="internal">
        <lane id=":intersectionOne_8_0" index="0" speed="13.89" length="5.93" shape="1.60,-7.20 1.05,-3.35 -0.00,-1.60"/>
    </edge>
    <edge id=":intersectionOne_14" function="internal">
        <lane id=":intersectionOne_14_0" index="0" speed="13.89" length="8.26" shape="-0.00,-1.60 -0.60,-0.60 -3.35,1.05 -7.20,1.60"/>
    </edge>
    <edge id=":intersectionOne_9" function="internal">
        <lane id=":intersectionOne_9_0" index="0" speed="13.89" length="9.03" shape="-7.20,-1.60 -4.75,-1.95 -3.00,-3.00 -1.95,-4.75 -1.60,-7.20"/>
    </edge>
    <edge id=":intersectionOne_10" function="internal">
        <lane id=":intersectionOne_10_0" index="0" speed="13.89" length="14.40" shape="-7.20,-1.60 7.20,-1.60"/>
    </edge>
    <edge id=":intersectionOne_11" function="internal">
        <lane id=":intersectionOne_11_0" index="0" speed="13.89" length="5.93" shape="-7.20,-1.60 -3.35,-1.05 -1.60,0.00"/>
    </edge>
    <edge id=":intersectionOne_15" function="internal">
        <lane id=":intersectionOne_15_0" index="0" speed="13.89" length="8.26" shape="-1.60,0.00 -0.60,0.60 1.05,3.35 1.60,7.20"/>
    </edge>
    <edge id=":intersectionSeven_0" function="internal">
        <lane id=":intersectionSeven_0_0" index="0" speed="13.89" length="9.03" shape="598.40,-292.80 598.05,-295.25 597.00,-297.00 595.25,-298.05 592.80,-298.40"/>
    </edge>
    <edge id=":intersectionSeven_1" function="internal">
        <lane id=":intersectionSeven_1_0" index="0" speed="13.89" length="14.40" shape="598.40,-292.80 598.40,-307.20"/>
    </edge>
    <edge id=":intersectionSeven_2" function="internal">
        <lane id=":intersectionSeven_2_0" index="0" speed="13.89" length="5.93" shape="598.40,-292.80 598.95,-296.65 600.00,-298.40"/>
    </edge>
    <edge id=":intersectionSeven_12" function="internal">
        <lane id=":intersectionSeven_12_0" index="0" speed="13.89" length="8.26" shape="600.00,-298.40 600.60,-299.40 603.35,-301.05 607.20,-301.60"/>
    </edge>
    <edge id=":intersectionSeven_3" function="internal">
        <lane id=":intersectionSeven_3_0" index="0" speed="13.89" length="9.03" shape="607.20,-298.40 604.75,-298.05 603.00,-297.00 601.95,-295.25 601.60,-292.80"/>
    </edge>
    <edge id=":intersectionSeven_4" function="internal">
        <lane id=":intersectionSeven_4_0" index="0" speed="13.89" length="14.40" shape="607.20,-298.40 592.80,-298.40"/>
    </edge>
    <edge id=":intersectionSeven_5" function="internal">
        <lane id=":intersectionSeven_5_0" index="0" speed="13.89" length="5.93" shape="607.20,-298.40 603.35,-298.95 601.60,-300.00"/>
    </edge>
    <edge id=":intersectionSeven_13" function="internal">
        <lane id=":intersectionSeven_13_0" index="0" speed="13.89" length="8.26" shape="601.60,-300.00 600.60,-300.60 598.95,-303.35 598.40,-307.20"/>
    </edge>
    <edge id=":intersectionSeven_6" function="internal">