<?xml version="1.0" encoding="UTF-8"?>
                <configuration xmlns:xsi="http://www.w3.org/2001/XMLSchema-instance" xsi:noNamespaceSchemaLocation="http://sumo.dlr.de/xsd/sumoConfiguration.xsd">
                    <input>
                        <net-file value="cross.net.xml"/>
                        <route-files value="cross_0.rou.xml"/>
                        <additional-files value="cross_0.add.xml"/>
                    </input>
                
                    <time>
                        <begin value="0"/>
                    </time>
                
                    <report>
                        <verbose value="false"/>
                        <no-step-log value="true"/>
                    </report>
                    
                </configuration>
            
