<routes>
            <vType id="car" accel="0.8" decel="4.5" sigma="0.5" length="5" minGap="2.5" maxSpeed="15"     guiShape="passenger"/>

            <route id="west_east" edges="inWest outEast" />
            <route id="west_north" edges="inWest outNorth" />
            <route id="west_south" edges="inWest outSouth" />

            <route id="east_west" edges="inEast outWest" />
            <route id="east_north" edges="inEast outNorth" />
            <route id="east_south" edges="inEast outSouth" />

            <route id="north_south" edges="inNorth outSouth" />
            <route id="north_east" edges="inNorth outEast" />
            <route id="north_west" edges="inNorth outWest" />

            <route id="south_north" edges="inSouth outNorth" />
            <route id="south_west" edges="inSouth outWest" />
            <route id="south_east" edges="inSouth outEast" />

            
    <vehicle id="east_west_6" type="car" route="east_west" depart="6" />
    <vehicle id="east_north_8" type="car" route="east_north" depart="8" />
    <vehicle id="south_east_16" type="car" route="south_east" depart="16" />
    <vehicle id="west_north_41" type="car" route="west_north" depart="41" />
    <vehicle id="south_north_45" type="car" route="south_north" depart="45" />
    <vehicle id="west_east_77" type="car" route="west_east" depart="77" />
    <vehicle id="west_east_80" type="car" route="west_east" depart="80" />
    <vehicle id="east_north_101" type="car" route="east_north" depart="101" />
    <vehicle id="east_north_111" type="car" route="east_north" depart="111" />
    <vehicle id="north_south_133" type="car" route="north_south" depart="133" />
    <vehicle id="north_south_141" type="car" route="north_south" depart="141" />
    <vehicle id="south_north_151" type="car" route="south_north" depart="151" />
    <vehicle id="east_north_179" type="car" route="east_north" depart="179" />
    <vehicle id="west_north_205" type="car" route="west_north" depart="205" />
    <vehicle id="south_east_214" type="car" route="south_east" depart="214" />
    <vehicle id="south_east_221" type="car" route="south_east" depart="221" />
    <vehicle id="west_north_236" type="car" route="west_north" depart="236" />
    <vehicle id="north_east_241" type="car" route="north_east" depart="241" />
    <vehicle id="north_east_242" type="car" route="north_east" depart="242" />
</routes>
