<routes>
        <vType id="car" accel="0.8" decel="4.5" sigma="0.5" length="5" minGap="2.5" maxSpeed="15" guiShape="passenger"/>

        <route id="west_east" edges="inWest outEast" />
        <route id="west_north" edges="inWest outNorth" />
        <route id="west_south" edges="inWest outSouth" />
        
        <route id="east_west" edges="inEast outWest" />
        <route id="east_north" edges="inEast outNorth" />
        <route id="east_south" edges="inEast outSouth" />
        
        <route id="north_south" edges="inNorth outSouth" />
        <route id="north_east" edges="inNorth outEast" />
        <route id="north_west" edges="inNorth outWest" />
        
        <route id="south_north" edges="inSouth outNorth" />
        <route id="south_west" edges="inSouth outWest" />
        <route id="south_east" edges="inSouth outEast" />

        
    <vehicle id="north_west_5" type="car" route="north_west" depart="5" />
    <vehicle id="north_south_29" type="car" route="north_south" depart="29" />
    <vehicle id="north_east_44" type="car" route="north_east" depart="44" />
    <vehicle id="east_south_57" type="car" route="east_south" depart="57" />
    <vehicle id="east_west_72" type="car" route="east_west" depart="72" />
    <vehicle id="south_north_91" type="car" route="south_north" depart="91" />
    <vehicle id="west_south_128" type="car" route="west_south" depart="128" />
    <vehicle id="north_east_134" type="car" route="north_east" depart="134" />
    <vehicle id="south_east_145" type="car" route="south_east" depart="145" />
    <vehicle id="west_north_153" type="car" route="west_north" depart="153" />
    <vehicle id="west_east_175" type="car" route="west_east" depart="175" />
    <vehicle id="east_south_197" type="car" route="east_south" depart="197" />
    <vehicle id="north_west_198" type="car" route="north_west" depart="198" />
    <vehicle id="south_north_199" type="car" route="south_north" depart="199" />
    <vehicle id="east_west_200" type="car" route="east_west" depart="200" />
    <vehicle id="south_north_205" type="car" route="south_north" depart="205" />
    <vehicle id="south_west_208" type="car" route="south_west" depart="208" />
    <vehicle id="west_north_226" type="car" route="west_north" depart="226" />
    <vehicle id="south_north_244" type="car" route="south_north" depart="244" />
    <vehicle id="east_north_247" type="car" route="east_north" depart="247" />
    <vehicle id="east_west_289" type="car" route="east_west" depart="289" />
    <vehicle id="west_east_291" type="car" route="west_east" depart="291" />
    <vehicle id="west_east_294" type="car" route="west_east" depart="294" />
    <vehicle id="west_south_301" type="car" route="west_south" depart="301" />
    <vehicle id="east_west_314" type="car" route="east_west" depart="314" />
    <vehicle id="west_north_315" type="car" route="west_north" depart="315" />
    <vehicle id="east_west_319" type="car" route="east_west" depart="319" />
    <vehicle id="north_west_326" type="car" route="north_west" depart="326" />
    <vehicle id="east_north_329" type="car" route="east_north" depart="329" />
    <vehicle id="north_south_354" type="car" route="north_south" depart="354" />
    <vehicle id="west_north_355" type="car" route="west_north" depart="355" />
    <vehicle id="west_east_367" type="car" route="west_east" depart="367" />
    <vehicle id="east_west_373" type="car" route="east_west" depart="373" />
    <vehicle id="south_north_377" type="car" route="south_north" depart="377" />
    <vehicle id="south_north_386" type="car" route="south_north" depart="386" />
    <vehicle id="east_west_401" type="car" route="east_west" depart="401" />
    <vehicle id="east_south_407" type="car" route="east_south" depart="407" />
    <vehicle id="east_west_412" type="car" route="east_west" depart="412" />
    <vehicle id="east_north_416" type="car" route="east_north" depart="416" />
    <vehicle id="west_east_454" type="car" route="west_east" depart="454" />
    <vehicle id="north_west_458" type="car" route="north_west" depart="458" />
    <vehicle id="east_north_465" type="car" route="east_north" depart="465" />
    <vehicle id="west_east_470" type="car" route="west_east" depart="470" />
    <vehicle id="south_west_471" type="car" route="south_west" depart="471" />
    <vehicle id="south_east_474" type="car" route="south_east" depart="474" />
    <vehicle id="north_west_477" type="car" route="north_west" depart="477" />
    <vehicle id="south_west_487" type="car" route="south_west" depart="487" />
    <vehicle id="south_west_492" type="car" route="south_west" depart="492" />
    <vehicle id="south_north_518" type="car" route="south_north" depart="518" />
    <vehicle id="east_south_539" type="car" route="east_south" depart="539" />
    <vehicle id="east_south_553" type="car" route="east_south" depart="553" />
    <vehicle id="east_north_556" type="car" route="east_north" depart="556" />
    <vehicle id="west_north_559" type="car" route="west_north" depart="559" />
    <vehicle id="east_west_567" type="car" route="east_west" depart="567" />
    <vehicle id="south_west_570" type="car" route="south_west" depart="570" />
    <vehicle id="north_west_573" type="car" route="north_west" depart="573" />
    <vehicle id="east_north_578" type="car" route="east_north" depart="578" />
    <vehicle id="west_south_588" type="car" route="west_south" depart="588" />
    <vehicle id="west_east_595" type="car" route="west_east" depart="595" />
    <vehicle id="west_north_604" type="car" route="west_north" depart="604" />
    <vehicle id="north_south_622" type="car" route="north_south" depart="622" />
    <vehicle id="west_north_626" type="car" route="west_north" depart="626" />
    <vehicle id="west_east_644" type="car" route="west_east" depart="644" />
    <vehicle id="west_south_654" type="car" route="west_south" depart="654" />
    <vehicle id="east_north_662" type="car" route="east_north" depart="662" />
    <vehicle id="north_south_679" type="car" route="north_south" depart="679" />
    <vehicle id="east_north_685" type="car" route="east_north" depart="685" />
    <vehicle id="south_north_695" type="car" route="south_north" depart="695" />
    <vehicle id="east_south_697" type="car" route="east_south" depart="697" />
    <vehicle id="west_east_705" type="car" route="west_east" depart="705" />
    <vehicle id="east_south_709" type="car" route="east_south" depart="709" />
    <vehicle id="east_west_714" type="car" route="east_west" depart="714" />
    <vehicle id="west_north_718" type="car" route="west_north" depart="718" />
    <vehicle id="south_west_727" type="car" route="south_west" depart="727" />
    <vehicle id="south_west_733" type="car" route="south_west" depart="733" />
    <vehicle id="north_east_734" type="car" route="north_east" depart="734" />
    <vehicle id="south_west_736" type="car" route="south_west" depart="736" />
    <vehicle id="south_east_744" type="car" route="south_east" depart="744" />
    <vehicle id="south_west_754" type="car" route="south_west" depart="754" />
    <vehicle id="east_north_764" type="car" route="east_north" depart="764" />
    <vehicle id="west_south_768" type="car" route="west_south" depart="768" />
    <vehicle id="west_east_778" type="car" route="west_east" depart="778" />
    <vehicle id="north_west_793" type="car" route="north_west" depart="793" />
    <vehicle id="east_west_804" type="car" route="east_west" depart="804" />
    <vehicle id="north_south_811" type="car" route="north_south" depart="811" />
    <vehicle id="south_north_815" type="car" route="south_north" depart="815" />
    <vehicle id="west_north_820" type="car" route="west_north" depart="820" />
    <vehicle id="west_north_829" type="car" route="west_north" depart="829" />
    <vehicle id="north_south_851" type="car" route="north_south" depart="851" />
    <vehicle id="south_north_852" type="car" route="south_north" depart="852" />
    <vehicle id="north_east_861" type="car" route="north_east" depart="861" />
    <vehicle id="south_west_864" type="car" route="south_west" depart="864" />
    <vehicle id="west_south_865" type="car" route="west_south" depart="865" />
    <vehicle id="north_south_876" type="car" route="north_south" depart="876" />
    <vehicle id="west_east_886" type="car" route="west_east" depart="886" />
    <vehicle id="north_west_892" type="car" route="north_west" depart="892" />
    <vehicle id="north_east_915" type="car" route="north_east" depart="915" />
    <vehicle id="east_west_938" type="car" route="east_west" depart="938" />
    <vehicle id="east_north_946" type="car" route="east_north" depart="946" />
    <vehicle id="east_south_949" type="car" route="east_south" depart="949" />
    <vehicle id="north_west_966" type="car" route="north_west" depart="966" />
    <vehicle id="north_south_989" type="car" route="north_south" depart="989" />
    <vehicle id="west_north_1001" type="car" route="west_north" depart="1001" />
    <vehicle id="north_west_1006" type="car" route="north_west" depart="1006" />
    <vehicle id="east_south_1016" type="car" route="east_south" depart="1016" />
    <vehicle id="north_west_1019" type="car" route="north_west" depart="1019" />
    <vehicle id="east_west_1020" type="car" route="east_west" depart="1020" />
    <vehicle id="south_north_1022" type="car" route="south_north" depart="1022" />
    <vehicle id="east_south_1028" type="car" route="east_south" depart="1028" />
    <vehicle id="north_south_1031" type="car" route="north_south" depart="1031" />
    <vehicle id="south_north_1039" type="car" route="south_north" depart="1039" />
    <vehicle id="north_west_1041" type="car" route="north_west" depart="1041" />
    <vehicle id="south_north_1048" type="car" route="south_north" depart="1048" />
    <vehicle id="west_east_1053" type="car" route="west_east" depart="1053" />
    <vehicle id="west_north_1076" type="car" route="west_north" depart="1076" />
    <vehicle id="east_north_1083" type="car" route="east_north" depart="1083" />
    <vehicle id="north_south_1084" type="car" route="north_south" depart="1084" />
    <vehicle id="south_north_1100" type="car" route="south_north" depart="1100" />
    <vehicle id="east_west_1107" type="car" route="east_west" depart="1107" />
    <vehicle id="north_east_1118" type="car" route="north_east" depart="1118" />
    <vehicle id="north_south_1123" type="car" route="north_south" depart="1123" />
    <vehicle id="north_west_1143" type="car" route="north_west" depart="1143" />
    <vehicle id="south_west_1144" type="car" route="south_west" depart="1144" />
    <vehicle id="north_east_1160" type="car" route="north_east" depart="1160" />
    <vehicle id="north_east_1167" type="car" route="north_east" depart="1167" />
    <vehicle id="south_east_1168" type="car" route="south_east" depart="1168" />
    <vehicle id="east_west_1175" type="car" route="east_west" depart="1175" />
    <vehicle id="south_west_1194" type="car" route="south_west" depart="1194" />
    <vehicle id="east_north_1198" type="car" route="east_north" depart="1198" />
    <vehicle id="north_west_1203" type="car" route="north_west" depart="1203" />
    <vehicle id="south_north_1213" type="car" route="south_north" depart="1213" />
    <vehicle id="south_east_1215" type="car" route="south_east" depart="1215" />
    <vehicle id="south_west_1221" type="car" route="south_west" depart="1221" />
    <vehicle id="north_west_1222" type="car" route="north_west" depart="1222" />
    <vehicle id="south_north_1224" type="car" route="south_north" depart="1224" />
    <vehicle id="north_west_1270" type="car" route="north_west" depart="1270" />
    <vehicle id="north_east_1277" type="car" route="north_east" depart="1277" />
    <vehicle id="north_east_1284" type="car" route="north_east" depart="1284" />
    <vehicle id="east_south_1285" type="car" route="east_south" depart="1285" />
    <vehicle id="west_south_1288" type="car" route="west_south" depart="1288" />
    <vehicle id="east_west_1290" type="car" route="east_west" depart="1290" />
    <vehicle id="west_north_1300" type="car" route="west_north" depart="1300" />
    <vehicle id="south_east_1302" type="car" route="south_east" depart="1302" />
    <vehicle id="north_east_1308" type="car" route="north_east" depart="1308" />
    <vehicle id="south_east_1337" type="car" route="south_east" depart="1337" />
    <vehicle id="south_north_1339" type="car" route="south_north" depart="1339" />
    <vehicle id="north_east_1341" type="car" route="north_east" depart="1341" />
    <vehicle id="west_south_1343" type="car" route="west_south" depart="1343" />
    <vehicle id="north_west_1346" type="car" route="north_west" depart="1346" />
    <vehicle id="east_south_1347" type="car" route="east_south" depart="1347" />
    <vehicle id="east_south_1355" type="car" route="east_south" depart="1355" />
    <vehicle id="east_south_1357" type="car" route="east_south" depart="1357" />
    <vehicle id="south_west_1363" type="car" route="south_west" depart="1363" />
    <vehicle id="south_west_1364" type="car" route="south_west" depart="1364" />
    <vehicle id="north_west_1365" type="car" route="north_west" depart="1365" />
    <vehicle id="south_east_1369" type="car" route="south_east" depart="1369" />
    <vehicle id="south_east_1385" type="car" route="south_east" depart="1385" />
    <vehicle id="west_east_1392" type="car" route="west_east" depart="1392" />
    <vehicle id="west_east_1398" type="car" route="west_east" depart="1398" />
    <vehicle id="west_north_1428" type="car" route="west_north" depart="1428" />
    <vehicle id="north_east_1436" type="car" route="north_east" depart="1436" />
    <vehicle id="north_east_1457" type="car" route="north_east" depart="1457" />
    <vehicle id="north_west_1465" type="car" route="north_west" depart="1465" />
    <vehicle id="west_north_1491" type="car" route="west_north" depart="1491" />
    <vehicle id="south_east_1503" type="car" route="south_east" depart="1503" />
    <vehicle id="west_north_1505" type="car" route="west_north" depart="1505" />
    <vehicle id="west_east_1506" type="car" route="west_east" depart="1506" />
    <vehicle id="south_east_1523" type="car" route="south_east" depart="1523" />
    <vehicle id="east_west_1536" type="car" route="east_west" depart="1536" />
    <vehicle id="south_west_1538" type="car" route="south_west" depart="1538" />
    <vehicle id="east_south_1539" type="car" route="east_south" depart="1539" />
    <vehicle id="north_south_1543" type="car" route="north_south" depart="1543" />
    <vehicle id="west_south_1575" type="car" route="west_south" depart="1575" />
    <vehicle id="west_north_1590" type="car" route="west_north" depart="1590" />
    <vehicle id="east_south_1598" type="car" route="east_south" depart="1598" />
    <vehicle id="south_east_1616" type="car" route="south_east" depart="1616" />
    <vehicle id="south_north_1630" type="car" route="south_north" depart="1630" />
    <vehicle id="north_west_1639" type="car" route="north_west" depart="1639" />
    <vehicle id="east_south_1648" type="car" route="east_south" depart="1648" />
    <vehicle id="north_east_1659" type="car" route="north_east" depart="1659" />
    <vehicle id="east_north_1692" type="car" route="east_north" depart="1692" />
    <vehicle id="north_south_1719" type="car" route="north_south" depart="1719" />
    <vehicle id="north_east_1732" type="car" route="north_east" depart="1732" />
    <vehicle id="south_east_1733" type="car" route="south_east" depart="1733" />
    <vehicle id="west_north_1737" type="car" route="west_north" depart="1737" />
    <vehicle id="east_west_1740" type="car" route="east_west" depart="1740" />
    <vehicle id="south_west_1750" type="car" route="south_west" depart="1750" />
    <vehicle id="north_south_1777" type="car" route="north_south" depart="1777" />
    <vehicle id="south_east_1791" type="car" route="south_east" depart="1791" />
    <vehicle id="south_east_1823" type="car" route="south_east" depart="1823" />
    <vehicle id="south_west_1825" type="car" route="south_west" depart="1825" />
    <vehicle id="west_north_1826" type="car" route="west_north" depart="1826" />
    <vehicle id="east_north_1836" type="car" route="east_north" depart="1836" />
    <vehicle id="west_east_1848" type="car" route="west_east" depart="1848" />
    <vehicle id="west_south_1854" type="car" route="west_south" depart="1854" />
    <vehicle id="west_north_1862" type="car" route="west_north" depart="1862" />
    <vehicle id="west_south_1874" type="car" route="west_south" depart="1874" />
    <vehicle id="east_north_1882" type="car" route="east_north" depart="1882" />
    <vehicle id="east_south_1886" type="car" route="east_south" depart="1886" />
    <vehicle id="north_south_1913" type="car" route="north_south" depart="1913" />
    <vehicle id="west_east_1914" type="car" route="west_east" depart="1914" />
    <vehicle id="north_south_1936" type="car" route="north_south" depart="1936" />
    <vehicle id="north_west_1942" type="car" route="north_west" depart="1942" />
    <vehicle id="north_south_1975" type="car" route="north_south" depart="1975" />
    <vehicle id="south_north_1979" type="car" route="south_north" depart="1979" />
    <vehicle id="east_west_1984" type="car" route="east_west" depart="1984" />
    <vehicle id="south_north_1985" type="car" route="south_north" depart="1985" />
    <vehicle id="north_east_1987" type="car" route="north_east" depart="1987" />
    <vehicle id="west_east_1990" type="car" route="west_east" depart="1990" />
    <vehicle id="west_south_1992" type="car" route="west_south" depart="1992" />
    <vehicle id="north_east_1996" type="car" route="north_east" depart="1996" />
</routes>
