<routes>
            <vType id="car" accel="0.8" decel="4.5" sigma="0.5" length="5" minGap="2.5" maxSpeed="15"     guiShape="passenger"/>

            <route id="west_east" edges="inWest outEast" />
            <route id="west_north" edges="inWest outNorth" />
            <route id="west_south" edges="inWest outSouth" />

            <route id="east_west" edges="inEast outWest" />
            <route id="east_north" edges="inEast outNorth" />
            <route id="east_south" edges="inEast outSouth" />

            <route id="north_south" edges="inNorth outSouth" />
            <route id="north_east" edges="inNorth outEast" />
            <route id="north_west" edges="inNorth outWest" />

            <route id="south_north" edges="inSouth outNorth" />
            <route id="south_west" edges="inSouth outWest" />
            <route id="south_east" edges="inSouth outEast" />

            
    <vehicle id="south_west_9" type="car" route="south_west" depart="9" />
    <vehicle id="east_south_14" type="car" route="east_south" depart="14" />
    <vehicle id="west_north_18" type="car" route="west_north" depart="18" />
    <vehicle id="north_south_26" type="car" route="north_south" depart="26" />
    <vehicle id="north_south_34" type="car" route="north_south" depart="34" />
    <vehicle id="west_north_40" type="car" route="west_north" depart="40" />
    <vehicle id="north_south_53" type="car" route="north_south" depart="53" />
    <vehicle id="west_north_54" type="car" route="west_north" depart="54" />
    <vehicle id="south_west_91" type="car" route="south_west" depart="91" />
    <vehicle id="south_north_100" type="car" route="south_north" depart="100" />
    <vehicle id="south_east_107" type="car" route="south_east" depart="107" />
    <vehicle id="south_east_120" type="car" route="south_east" depart="120" />
    <vehicle id="south_west_138" type="car" route="south_west" depart="138" />
    <vehicle id="west_south_162" type="car" route="west_south" depart="162" />
    <vehicle id="south_north_170" type="car" route="south_north" depart="170" />
    <vehicle id="west_south_175" type="car" route="west_south" depart="175" />
    <vehicle id="west_north_176" type="car" route="west_north" depart="176" />
    <vehicle id="south_north_179" type="car" route="south_north" depart="179" />
    <vehicle id="north_east_183" type="car" route="north_east" depart="183" />
    <vehicle id="south_north_189" type="car" route="south_north" depart="189" />
    <vehicle id="south_west_190" type="car" route="south_west" depart="190" />
    <vehicle id="west_north_213" type="car" route="west_north" depart="213" />
    <vehicle id="south_west_227" type="car" route="south_west" depart="227" />
    <vehicle id="west_north_229" type="car" route="west_north" depart="229" />
    <vehicle id="south_north_236" type="car" route="south_north" depart="236" />
    <vehicle id="east_north_243" type="car" route="east_north" depart="243" />
</routes>
